256
Lattice="13.3 0.0 0.0 0.0 13.3 0.0 0.0 0.0 13.3" Properties=species:S:1:pos:R:3:Z:I:1 pbc="F F F"
O      1.90000000       1.90000000       5.70000000        8 
Mg      1.90000000       1.90000000       7.60000000       12 
O      1.90000000       5.70000000       1.90000000        8 
Mg      0.00000000       5.70000000       5.70000000       12 
Mg      1.90000000       3.80000000       5.70000000       12 
Mg      1.90000000       5.70000000       3.80000000       12 
O      1.90000000       5.70000000       5.70000000        8 
O      1.90000000       3.80000000       3.80000000        8 
O      0.00000000       5.70000000       3.80000000        8 
O      0.00000000       3.80000000       5.70000000        8 
Mg      0.00000000       3.80000000       7.60000000       12 
Mg      0.00000000       5.70000000       9.50000000       12 
Mg      1.90000000       3.80000000       9.50000000       12 
Mg      1.90000000       5.70000000       7.60000000       12 
O      1.90000000       5.70000000       9.50000000        8 
O      1.90000000       3.80000000       7.60000000        8 
O      0.00000000       5.70000000       7.60000000        8 
Mg      1.90000000       5.70000000      11.40000000       12 
Mg      1.90000000       7.60000000       1.90000000       12 
Mg      0.00000000       7.60000000       3.80000000       12 
Mg      0.00000000       9.50000000       5.70000000       12 
Mg      1.90000000       7.60000000       5.70000000       12 
Mg      1.90000000       9.50000000       3.80000000       12 
O      1.90000000       9.50000000       5.70000000        8 
O      1.90000000       7.60000000       3.80000000        8 
O      0.00000000       7.60000000       5.70000000        8 
Mg      0.00000000       7.60000000       7.60000000       12 
Mg      1.90000000       7.60000000       9.50000000       12 
Mg      1.90000000       9.50000000       7.60000000       12 
O      1.90000000       9.50000000       9.50000000        8 
O      1.90000000       7.60000000       7.60000000        8 
O      0.00000000       9.50000000       7.60000000        8 
O      0.00000000       7.60000000       9.50000000        8 
O      1.90000000       7.60000000      11.40000000        8 
Mg      1.90000000      11.40000000       5.70000000       12 
O      1.90000000      11.40000000       7.60000000        8 
O      5.70000000       1.90000000       1.90000000        8 
Mg      3.80000000       1.90000000       5.70000000       12 
Mg      5.70000000       0.00000000       5.70000000       12 
Mg      5.70000000       1.90000000       3.80000000       12 
O      5.70000000       1.90000000       5.70000000        8 
O      5.70000000       0.00000000       3.80000000        8 
O      3.80000000       1.90000000       3.80000000        8 
O      3.80000000       0.00000000       5.70000000        8 
Mg      3.80000000       0.00000000       7.60000000       12 
Mg      3.80000000       1.90000000       9.50000000       12 
Mg      5.70000000       0.00000000       9.50000000       12 
Mg      5.70000000       1.90000000       7.60000000       12 
O      5.70000000       1.90000000       9.50000000        8 
O      5.70000000       0.00000000       7.60000000        8 
O      3.80000000       1.90000000       7.60000000        8 
Mg      5.70000000       1.90000000      11.40000000       12 
Mg      3.80000000       5.70000000       1.90000000       12 
Mg      5.70000000       3.80000000       1.90000000       12 
Mg      5.70000000       5.70000000       0.00000000       12 
O      5.70000000       5.70000000       1.90000000        8 
O      5.70000000       3.80000000       0.00000000        8 
O      3.80000000       5.70000000       0.00000000        8 
O      3.80000000       3.80000000       1.90000000        8 
Mg      3.80000000       3.80000000       3.80000000       12 
Mg      3.80000000       5.70000000       5.70000000       12 
Mg      5.70000000       3.80000000       5.70000000       12 
Mg      5.70000000       5.70000000       3.80000000       12 
O      5.70000000       5.70000000       5.70000000        8 
O      5.70000000       3.80000000       3.80000000        8 
O      3.80000000       5.70000000       3.80000000        8 
O      3.80000000       3.80000000       5.70000000        8 
Mg      3.80000000       3.80000000       7.60000000       12 
Mg      3.80000000       5.70000000       9.50000000       12 
Mg      5.70000000       3.80000000       9.50000000       12 
Mg      5.70000000       5.70000000       7.60000000       12 
O      5.70000000       5.70000000       9.50000000        8 
O      5.70000000       3.80000000       7.60000000        8 
O      3.80000000       5.70000000       7.60000000        8 
O      3.80000000       3.80000000       9.50000000        8 
Mg      3.80000000       3.80000000      11.40000000       12 
Mg      3.80000000       5.70000000      13.30000000       12 
Mg      5.70000000       3.80000000      13.30000000       12 
Mg      5.70000000       5.70000000      11.40000000       12 
O      5.70000000       5.70000000      13.30000000        8 
O      5.70000000       3.80000000      11.40000000        8 
O      3.80000000       5.70000000      11.40000000        8 
Mg      3.80000000       7.60000000       0.00000000       12 
Mg      3.80000000       9.50000000       1.90000000       12 
Mg      5.70000000       7.60000000       1.90000000       12 
Mg      5.70000000       9.50000000       0.00000000       12 
O      5.70000000       9.50000000       1.90000000        8 
O      5.70000000       7.60000000       0.00000000        8 
O      3.80000000       7.60000000       1.90000000        8 
Mg      3.80000000       7.60000000       3.80000000       12 
Mg      3.80000000       9.50000000       5.70000000       12 
Mg      5.70000000       7.60000000       5.70000000       12 
Mg      5.70000000       9.50000000       3.80000000       12 
O      5.70000000       9.50000000       5.70000000        8 
O      5.70000000       7.60000000       3.80000000        8 
O      3.80000000       9.50000000       3.80000000        8 
O      3.80000000       7.60000000       5.70000000        8 
Mg      3.80000000       7.60000000       7.60000000       12 
Mg      3.80000000       9.50000000       9.50000000       12 
Mg      5.70000000       7.60000000       9.50000000       12 
Mg      5.70000000       9.50000000       7.60000000       12 
O      5.70000000       9.50000000       9.50000000        8 
O      5.70000000       7.60000000       7.60000000        8 
O      3.80000000       9.50000000       7.60000000        8 
O      3.80000000       7.60000000       9.50000000        8 
Mg      3.80000000       7.60000000      11.40000000       12 
Mg      5.70000000       7.60000000      13.30000000       12 
Mg      5.70000000       9.50000000      11.40000000       12 
O      5.70000000       9.50000000      13.30000000        8 
O      5.70000000       7.60000000      11.40000000        8 
O      3.80000000       9.50000000      11.40000000        8 
O      3.80000000       7.60000000      13.30000000        8 
Mg      5.70000000      11.40000000       1.90000000       12 
Mg      3.80000000      11.40000000       3.80000000       12 
Mg      3.80000000      13.30000000       5.70000000       12 
Mg      5.70000000      11.40000000       5.70000000       12 
Mg      5.70000000      13.30000000       3.80000000       12 
O      5.70000000      13.30000000       5.70000000        8 
O      5.70000000      11.40000000       3.80000000        8 
O      3.80000000      11.40000000       5.70000000        8 
Mg      3.80000000      11.40000000       7.60000000       12 
Mg      5.70000000      11.40000000       9.50000000       12 
Mg      5.70000000      13.30000000       7.60000000       12 
O      5.70000000      13.30000000       9.50000000        8 
O      5.70000000      11.40000000       7.60000000        8 
O      3.80000000      13.30000000       7.60000000        8 
O      3.80000000      11.40000000       9.50000000        8 
O      5.70000000      11.40000000      11.40000000        8 
Mg      7.60000000       1.90000000       1.90000000       12 
Mg      7.60000000       0.00000000       3.80000000       12 
Mg      7.60000000       1.90000000       5.70000000       12 
Mg      9.50000000       0.00000000       5.70000000       12 
Mg      9.50000000       1.90000000       3.80000000       12 
O      9.50000000       1.90000000       5.70000000        8 
O      7.60000000       1.90000000       3.80000000        8 
O      7.60000000       0.00000000       5.70000000        8 
Mg      7.60000000       0.00000000       7.60000000       12 
Mg      7.60000000       1.90000000       9.50000000       12 
Mg      9.50000000       1.90000000       7.60000000       12 
O      9.50000000       1.90000000       9.50000000        8 
O      9.50000000       0.00000000       7.60000000        8 
O      7.60000000       1.90000000       7.60000000        8 
O      7.60000000       0.00000000       9.50000000        8 
O      7.60000000       1.90000000      11.40000000        8 
Mg      7.60000000       3.80000000       0.00000000       12 
Mg      7.60000000       5.70000000       1.90000000       12 
Mg      9.50000000       3.80000000       1.90000000       12 
Mg      9.50000000       5.70000000       0.00000000       12 
O      9.50000000       5.70000000       1.90000000        8 
O      7.60000000       5.70000000       0.00000000        8 
O      7.60000000       3.80000000       1.90000000        8 
Mg      7.60000000       3.80000000       3.80000000       12 
Mg      7.60000000       5.70000000       5.70000000       12 
Mg      9.50000000       3.80000000       5.70000000       12 
Mg      9.50000000       5.70000000       3.80000000       12 
O      9.50000000       5.70000000       5.70000000        8 
O      9.50000000       3.80000000       3.80000000        8 
O      7.60000000       5.70000000       3.80000000        8 
O      7.60000000       3.80000000       5.70000000        8 
Mg      7.60000000       3.80000000       7.60000000       12 
Mg      7.60000000       5.70000000       9.50000000       12 
Mg      9.50000000       3.80000000       9.50000000       12 
Mg      9.50000000       5.70000000       7.60000000       12 
O      9.50000000       5.70000000       9.50000000        8 
O      9.50000000       3.80000000       7.60000000        8 
O      7.60000000       5.70000000       7.60000000        8 
O      7.60000000       3.80000000       9.50000000        8 
Mg      7.60000000       3.80000000      11.40000000       12 
Mg      7.60000000       5.70000000      13.30000000       12 
Mg      9.50000000       5.70000000      11.40000000       12 
O      9.50000000       5.70000000      13.30000000        8 
O      9.50000000       3.80000000      11.40000000        8 
O      7.60000000       5.70000000      11.40000000        8 
O      7.60000000       3.80000000      13.30000000        8 
Mg      7.60000000       7.60000000       0.00000000       12 
Mg      7.60000000       9.50000000       1.90000000       12 
Mg      9.50000000       7.60000000       1.90000000       12 
O      9.50000000       9.50000000       1.90000000        8 
O      9.50000000       7.60000000       0.00000000        8 
O      7.60000000       9.50000000       0.00000000        8 
O      7.60000000       7.60000000       1.90000000        8 
Mg      7.60000000       7.60000000       3.80000000       12 
Mg      7.60000000       9.50000000       5.70000000       12 
Mg      9.50000000       7.60000000       5.70000000       12 
Mg      9.50000000       9.50000000       3.80000000       12 
O      9.50000000       9.50000000       5.70000000        8 
O      9.50000000       7.60000000       3.80000000        8 
O      7.60000000       9.50000000       3.80000000        8 
O      7.60000000       7.60000000       5.70000000        8 
Mg      7.60000000       7.60000000       7.60000000       12 
Mg      7.60000000       9.50000000       9.50000000       12 
Mg      9.50000000       7.60000000       9.50000000       12 
Mg      9.50000000       9.50000000       7.60000000       12 
O      9.50000000       9.50000000       9.50000000        8 
O      9.50000000       7.60000000       7.60000000        8 
O      7.60000000       9.50000000       7.60000000        8 
O      7.60000000       7.60000000       9.50000000        8 
Mg      7.60000000       7.60000000      11.40000000       12 
Mg      7.60000000       9.50000000      13.30000000       12 
Mg      9.50000000       7.60000000      13.30000000       12 
Mg      9.50000000       9.50000000      11.40000000       12 
O      9.50000000       7.60000000      11.40000000        8 
O      7.60000000       9.50000000      11.40000000        8 
O      7.60000000       7.60000000      13.30000000        8 
O      7.60000000      11.40000000       1.90000000        8 
Mg      7.60000000      11.40000000       3.80000000       12 
Mg      7.60000000      13.30000000       5.70000000       12 
Mg      9.50000000      11.40000000       5.70000000       12 
O      9.50000000      13.30000000       5.70000000        8 
O      9.50000000      11.40000000       3.80000000        8 
O      7.60000000      13.30000000       3.80000000        8 
O      7.60000000      11.40000000       5.70000000        8 
Mg      7.60000000      11.40000000       7.60000000       12 
Mg      7.60000000      13.30000000       9.50000000       12 
Mg      9.50000000      11.40000000       9.50000000       12 
Mg      9.50000000      13.30000000       7.60000000       12 
O      9.50000000      11.40000000       7.60000000        8 
O      7.60000000      13.30000000       7.60000000        8 
O      7.60000000      11.40000000       9.50000000        8 
Mg      7.60000000      11.40000000      11.40000000       12 
Mg     11.40000000       1.90000000       5.70000000       12 
O     11.40000000       1.90000000       7.60000000        8 
Mg     11.40000000       5.70000000       1.90000000       12 
Mg     11.40000000       3.80000000       3.80000000       12 
Mg     11.40000000       5.70000000       5.70000000       12 
Mg     13.30000000       3.80000000       5.70000000       12 
Mg     13.30000000       5.70000000       3.80000000       12 
O     13.30000000       5.70000000       5.70000000        8 
O     11.40000000       5.70000000       3.80000000        8 
O     11.40000000       3.80000000       5.70000000        8 
Mg     11.40000000       3.80000000       7.60000000       12 
Mg     11.40000000       5.70000000       9.50000000       12 
Mg     13.30000000       5.70000000       7.60000000       12 
O     13.30000000       5.70000000       9.50000000        8 
O     13.30000000       3.80000000       7.60000000        8 
O     11.40000000       5.70000000       7.60000000        8 
O     11.40000000       3.80000000       9.50000000        8 
O     11.40000000       5.70000000      11.40000000        8 
O     11.40000000       7.60000000       1.90000000        8 
Mg     11.40000000       7.60000000       3.80000000       12 
Mg     11.40000000       9.50000000       5.70000000       12 
Mg     13.30000000       7.60000000       5.70000000       12 
O     13.30000000       9.50000000       5.70000000        8 
O     13.30000000       7.60000000       3.80000000        8 
O     11.40000000       9.50000000       3.80000000        8 
O     11.40000000       7.60000000       5.70000000        8 
Mg     11.40000000       7.60000000       7.60000000       12 
Mg     11.40000000       9.50000000       9.50000000       12 
Mg     13.30000000       7.60000000       9.50000000       12 
Mg     13.30000000       9.50000000       7.60000000       12 
O     13.30000000       7.60000000       7.60000000        8 
O     11.40000000       9.50000000       7.60000000        8 
O     11.40000000       7.60000000       9.50000000        8 
Mg     11.40000000       7.60000000      11.40000000       12 
O     11.40000000      11.40000000       5.70000000        8 
Mg     11.40000000      11.40000000       7.60000000       12 
